{
  "local_port": 47196,
  "remote_port": 443,
  "prompt": "How can one study about Wave Energy Converters and their efficiency?",
  "response": "Studying wave energy converters (WECs) and their efficiency involves a multi-faceted approach, combining theoretical knowledge, practical experimentation, simulation, and analysis. Here are some key steps and resources you can consider:\n\n### 1. **Fundamental Theoretical Knowledge**\n   - **Understand Wave Energy Basics**: Learn about ocean waves, their formation, and dynamics. Look into wave properties such as height, frequency, and energy density.\n   - **Learn about Energy Conversion Mechanisms**: Study different types of wave energy converters, such as point absorbers, oscillating water columns, and overtopping devices. Familiarize yourself with how these systems convert wave energy into usable energy.\n\n### 2. **Relevant Course Material**\n   - **University Courses**: Enroll in courses related to marine energy, renewable energy technologies, fluid dynamics, and mechanical engineering. Many universities offer specific programs or courses on renewable energy that cover wave energy.\n   - **Online Courses and MOOCs**: Platforms like Coursera, edX, and FutureLearn often provide courses on renewable energy that may include sections dedicated to wave energy.\n\n### 3. **Research Literature**\n   - **Scientific Journals**: Search for research papers in journals like *Renewable Energy*, *Ocean Engineering*, and *Energy*. \n   - **Books and Technical Reports**: A variety of texts specifically discuss WECs and methodologies to improve their efficiency.\n\n### 4. **Simulation and Modeling**\n   - **Numerical Modeling Software**: Familiarize yourself with modeling tools like ANSYS, OpenFOAM, or MATLAB to simulate wave interactions with converters.\n   - **Wave Simulation Models**: Learn how to use wave prediction models such as SWAN (Simulating Waves Nearshore) or WAVEWATCH III.\n\n### 5. **Experimental Studies**\n   - **Wave Energy Test Facilities**: If possible, visit or collaborate with research institutions that have wave energy testing facilities, such as the Ocean Energy Development in the UK or the National Renewable Energy Laboratory (NREL) in the U.S.\n   - **Prototype Development**: Engage in practical engineering projects that involve designing, building, and testing prototypes of wave energy converters.\n\n### 6. **Efficiency Analysis**\n   - **Data Analysis**: Collect data from real-world operations of WECs or simulations and analyze their performance metrics, such as capture width ratio, efficiency ratings, and energy conversion efficiency.\n   - **Performance Metrics**: Understand various performance metrics used in assessing WECs, including the power matrix, efficiency, reliability, and maintenance requirements.\n\n### 7. **Networking and Collaboration**\n   - **Conferences and Workshops**: Attend conferences focused on renewable energy (e.g., the International Conference on Ocean Energy) to learn from experts in the field and network with professionals.\n   - **Join Professional Organizations**: Join organizations such as the International Renewable Energy Agency (IRENA) or the International Marine Renewable Energy Conference (IMREC) to stay updated on latest developments.\n\n### 8. **Case Studies and Projects**\n   - **Analyze Existing Installations**: Study existing WEC projects worldwide, looking at their design, performance, maintenance, and lessons learned.\n   - **Conduct Individual Research Projects**: If in an academic setting, consider conducting an independent study or thesis project focused on a specific aspect of wave energy conversion and its efficiency.\n\n### 9. **Policy and Market Analysis**\n   - **Regulatory Frameworks**: Study the regulations surrounding wave energy conversion and its market potential.\n   - **Economic Viability**: Assess the economic factors influencing WEC deployment, including costs, funding opportunities, and return on investment.\n\nBy integrating these approaches, one can gain a comprehensive understanding of wave energy converters and their efficiency, contributing to the advancement of renewable energy technologies.",
  "response_tokens": [
    "Stud",
    "ying",
    " wave",
    " energy",
    " converters",
    " (",
    "W",
    "EC",
    "s",
    ")",
    " and",
    " their",
    " efficiency",
    " involves",
    " a",
    " multi",
    "-f",
    "aceted",
    " approach",
    ",",
    " combining",
    " theoretical",
    " knowledge",
    ",",
    " practical",
    " experimentation",
    ",",
    " simulation",
    ",",
    " and",
    " analysis",
    ".",
    " Here",
    " are",
    " some",
    " key",
    " steps",
    " and",
    " resources",
    " you",
    " can",
    " consider",
    ":\n\n",
    "###",
    " ",
    "1",
    ".",
    " **",
    "Fund",
    "amental",
    " The",
    "oretical",
    " Knowledge",
    "**\n",
    "  ",
    " -",
    " **",
    "Understand",
    " Wave",
    " Energy",
    " Basics",
    "**",
    ":",
    " Learn",
    " about",
    " ocean",
    " waves",
    ",",
    " their",
    " formation",
    ",",
    " and",
    " dynamics",
    ".",
    " Look",
    " into",
    " wave",
    " properties",
    " such",
    " as",
    " height",
    ",",
    " frequency",
    ",",
    " and",
    " energy",
    " density",
    ".\n",
    "  ",
    " -",
    " **",
    "Learn",
    " about",
    " Energy",
    " Conversion",
    " Mechan",
    "isms",
    "**",
    ":",
    " Study",
    " different",
    " types",
    " of",
    " wave",
    " energy",
    " converters",
    ",",
    " such",
    " as",
    " point",
    " absor",
    "bers",
    ",",
    " oscill",
    "ating",
    " water",
    " columns",
    ",",
    " and",
    " overt",
    "opping",
    " devices",
    ".",
    " Familiar",
    "ize",
    " yourself",
    " with",
    " how",
    " these",
    " systems",
    " convert",
    " wave",
    " energy",
    " into",
    " usable",
    " energy",
    ".\n\n",
    "###",
    " ",
    "2",
    ".",
    " **",
    "Relevant",
    " Course",
    " Material",
    "**\n",
    "  ",
    " -",
    " **",
    "University",
    " Courses",
    "**",
    ":",
    " En",
    "roll",
    " in",
    " courses",
    " related",
    " to",
    " marine",
    " energy",
    ",",
    " renewable",
    " energy",
    " technologies",
    ",",
    " fluid",
    " dynamics",
    ",",
    " and",
    " mechanical",
    " engineering",
    ".",
    " Many",
    " universities",
    " offer",
    " specific",
    " programs",
    " or",
    " courses",
    " on",
    " renewable",
    " energy",
    " that",
    " cover",
    " wave",
    " energy",
    ".\n",
    "  ",
    " -",
    " **",
    "Online",
    " Courses",
    " and",
    " MOOCs",
    "**",
    ":",
    " Platforms",
    " like",
    " Cour",
    "sera",
    ",",
    " ed",
    "X",
    ",",
    " and",
    " Future",
    "Learn",
    " often",
    " provide",
    " courses",
    " on",
    " renewable",
    " energy",
    " that",
    " may",
    " include",
    " sections",
    " dedicated",
    " to",
    " wave",
    " energy",
    ".\n\n",
    "###",
    " ",
    "3",
    ".",
    " **",
    "Research",
    " Literature",
    "**\n",
    "  ",
    " -",
    " **",
    "Scientific",
    " Journ",
    "als",
    "**",
    ":",
    " Search",
    " for",
    " research",
    " papers",
    " in",
    " journals",
    " like",
    " *",
    "Renew",
    "able",
    " Energy",
    "*,",
    " *",
    "Ocean",
    " Engineering",
    "*,",
    " and",
    " *",
    "Energy",
    "*.",
    " \n",
    "  ",
    " -",
    " **",
    "Books",
    " and",
    " Technical",
    " Reports",
    "**",
    ":",
    " A",
    " variety",
    " of",
    " texts",
    " specifically",
    " discuss",
    " W",
    "EC",
    "s",
    " and",
    " methodologies",
    " to",
    " improve",
    " their",
    " efficiency",
    ".\n\n",
    "###",
    " ",
    "4",
    ".",
    " **",
    "Simulation",
    " and",
    " Modeling",
    "**\n",
    "  ",
    " -",
    " **",
    "Numer",
    "ical",
    " Modeling",
    " Software",
    "**",
    ":",
    " Familiar",
    "ize",
    " yourself",
    " with",
    " modeling",
    " tools",
    " like",
    " AN",
    "SYS",
    ",",
    " Open",
    "FO",
    "AM",
    ",",
    " or",
    " MATLAB",
    " to",
    " simulate",
    " wave",
    " interactions",
    " with",
    " converters",
    ".\n",
    "  ",
    " -",
    " **",
    "Wave",
    " Simulation",
    " Models",
    "**",
    ":",
    " Learn",
    " how",
    " to",
    " use",
    " wave",
    " prediction",
    " models",
    " such",
    " as",
    " SW",
    "AN",
    " (",
    "Sim",
    "ulating",
    " Waves",
    " Near",
    "shore",
    ")",
    " or",
    " W",
    "AVE",
    "WATCH",
    " III",
    ".\n\n",
    "###",
    " ",
    "5",
    ".",
    " **",
    "Experimental",
    " Studies",
    "**\n",
    "  ",
    " -",
    " **",
    "Wave",
    " Energy",
    " Test",
    " Facilities",
    "**",
    ":",
    " If",
    " possible",
    ",",
    " visit",
    " or",
    " collaborate",
    " with",
    " research",
    " institutions",
    " that",
    " have",
    " wave",
    " energy",
    " testing",
    " facilities",
    ",",
    " such",
    " as",
    " the",
    " Ocean",
    " Energy",
    " Development",
    " in",
    " the",
    " UK",
    " or",
    " the",
    " National",
    " Renewable",
    " Energy",
    " Laboratory",
    " (",
    "N",
    "REL",
    ")",
    " in",
    " the",
    " U",
    ".S",
    ".\n",
    "  ",
    " -",
    " **",
    "Prototype",
    " Development",
    "**",
    ":",
    " Engage",
    " in",
    " practical",
    " engineering",
    " projects",
    " that",
    " involve",
    " designing",
    ",",
    " building",
    ",",
    " and",
    " testing",
    " prototypes",
    " of",
    " wave",
    " energy",
    " converters",
    ".\n\n",
    "###",
    " ",
    "6",
    ".",
    " **",
    "Efficiency",
    " Analysis",
    "**\n",
    "  ",
    " -",
    " **",
    "Data",
    " Analysis",
    "**",
    ":",
    " Collect",
    " data",
    " from",
    " real",
    "-world",
    " operations",
    " of",
    " W",
    "EC",
    "s",
    " or",
    " simulations",
    " and",
    " analyze",
    " their",
    " performance",
    " metrics",
    ",",
    " such",
    " as",
    " capture",
    " width",
    " ratio",
    ",",
    " efficiency",
    " ratings",
    ",",
    " and",
    " energy",
    " conversion",
    " efficiency",
    ".\n",
    "  ",
    " -",
    " **",
    "Performance",
    " Metrics",
    "**",
    ":",
    " Understand",
    " various",
    " performance",
    " metrics",
    " used",
    " in",
    " assessing",
    " W",
    "EC",
    "s",
    ",",
    " including",
    " the",
    " power",
    " matrix",
    ",",
    " efficiency",
    ",",
    " reliability",
    ",",
    " and",
    " maintenance",
    " requirements",
    ".\n\n",
    "###",
    " ",
    "7",
    ".",
    " **",
    "Networking",
    " and",
    " Collaboration",
    "**\n",
    "  ",
    " -",
    " **",
    "Con",
    "ferences",
    " and",
    " Workshops",
    "**",
    ":",
    " Attend",
    " conferences",
    " focused",
    " on",
    " renewable",
    " energy",
    " (",
    "e",
    ".g",
    ".,",
    " the",
    " International",
    " Conference",
    " on",
    " Ocean",
    " Energy",
    ")",
    " to",
    " learn",
    " from",
    " experts",
    " in",
    " the",
    " field",
    " and",
    " network",
    " with",
    " professionals",
    ".\n",
    "  ",
    " -",
    " **",
    "Join",
    " Professional",
    " Organizations",
    "**",
    ":",
    " Join",
    " organizations",
    " such",
    " as",
    " the",
    " International",
    " Renewable",
    " Energy",
    " Agency",
    " (",
    "IRE",
    "NA",
    ")",
    " or",
    " the",
    " International",
    " Marine",
    " Renewable",
    " Energy",
    " Conference",
    " (",
    "IM",
    "REC",
    ")",
    " to",
    " stay",
    " updated",
    " on",
    " latest",
    " developments",
    ".\n\n",
    "###",
    " ",
    "8",
    ".",
    " **",
    "Case",
    " Studies",
    " and",
    " Projects",
    "**\n",
    "  ",
    " -",
    " **",
    "Analyze",
    " Existing",
    " Install",
    "ations",
    "**",
    ":",
    " Study",
    " existing",
    " W",
    "EC",
    " projects",
    " worldwide",
    ",",
    " looking",
    " at",
    " their",
    " design",
    ",",
    " performance",
    ",",
    " maintenance",
    ",",
    " and",
    " lessons",
    " learned",
    ".\n",
    "  ",
    " -",
    " **",
    "Conduct",
    " Individual",
    " Research",
    " Projects",
    "**",
    ":",
    " If",
    " in",
    " an",
    " academic",
    " setting",
    ",",
    " consider",
    " conducting",
    " an",
    " independent",
    " study",
    " or",
    " thesis",
    " project",
    " focused",
    " on",
    " a",
    " specific",
    " aspect",
    " of",
    " wave",
    " energy",
    " conversion",
    " and",
    " its",
    " efficiency",
    ".\n\n",
    "###",
    " ",
    "9",
    ".",
    " **",
    "Policy",
    " and",
    " Market",
    " Analysis",
    "**\n",
    "  ",
    " -",
    " **",
    "Reg",
    "ulatory",
    " Framework",
    "s",
    "**",
    ":",
    " Study",
    " the",
    " regulations",
    " surrounding",
    " wave",
    " energy",
    " conversion",
    " and",
    " its",
    " market",
    " potential",
    ".\n",
    "  ",
    " -",
    " **",
    "Economic",
    " Vi",
    "ability",
    "**",
    ":",
    " Assess",
    " the",
    " economic",
    " factors",
    " influencing",
    " W",
    "EC",
    " deployment",
    ",",
    " including",
    " costs",
    ",",
    " funding",
    " opportunities",
    ",",
    " and",
    " return",
    " on",
    " investment",
    ".\n\n",
    "By",
    " integrating",
    " these",
    " approaches",
    ",",
    " one",
    " can",
    " gain",
    " a",
    " comprehensive",
    " understanding",
    " of",
    " wave",
    " energy",
    " converters",
    " and",
    " their",
    " efficiency",
    ",",
    " contributing",
    " to",
    " the",
    " advancement",
    " of",
    " renewable",
    " energy",
    " technologies",
    "."
  ],
  "response_token_count": 767,
  "temperature": 1.0,
  "data_lengths": [
    4425,
    525,
    1270,
    404,
    1025,
    1501,
    1483,
    557,
    1022,
    1034,
    565,
    1025,
    1495,
    1006,
    1043,
    1029,
    1022,
    1027,
    561,
    1026,
    1027,
    560,
    1031,
    1030,
    1487,
    4287,
    2422,
    1031,
    1487,
    1496,
    557,
    562,
    1028,
    1030,
    5221,
    1961,
    1021,
    1025,
    2435,
    1461,
    1029,
    2893,
    560,
    1491,
    1958,
    562,
    1031,
    1027,
    1029,
    4004,
    1227,
    558,
    1022,
    2889,
    1497,
    1495,
    1028,
    2436,
    513,
    2120,
    1712,
    1307,
    1022,
    1022,
    1496,
    1958,
    561,
    1026,
    557,
    559,
    1019,
    1028,
    561,
    1031,
    1499,
    563,
    1495,
    1036,
    1025,
    563,
    561,
    3815,
    2423,
    1022,
    1960,
    1027,
    565,
    1024,
    561,
    1028,
    558,
    558,
    1927,
    5209,
    564,
    1717,
    895,
    896,
    1314,
    499,
    504,
    1298,
    2104,
    502,
    3351,
    565,
    3360,
    1028,
    3803,
    6635,
    1020,
    2422,
    1965,
    559,
    558,
    558,
    1027,
    1956,
    1022,
    1490,
    1487,
    1956,
    3352,
    1033,
    2416,
    1965,
    565,
    569,
    561,
    2436,
    2419,
    1036,
    1148,
    1023,
    1938,
    559,
    1486,
    558,
    1485,
    1462,
    1027,
    566,
    1038,
    561,
    564,
    1498,
    1963,
    559,
    1029,
    567,
    1025,
    1019,
    932,
    1958,
    1500,
    1022,
    1484,
    4004,
    784,
    3321,
    1029,
    2436,
    2887,
    1027,
    1004,
    557,
    1973,
    4286,
    558,
    1955,
    2424,
    2440,
    8288,
    5433,
    4546,
    1022,
    1484,
    1035,
    563,
    1034,
    1493,
    559,
    557,
    559,
    561,
    1028,
    3817,
    1964,
    1950,
    1969,
    1020,
    562,
    2894,
    1495,
    1498,
    4286,
    3799,
    1496,
    1315,
    900,
    2113,
    502,
    500,
    1304,
    1717,
    4276,
    1493,
    558,
    1023,
    563,
    566,
    557,
    1952,
    1507,
    4295,
    1028,
    1027,
    1953,
    2905,
    2426,
    570,
    3355,
    1507,
    4765,
    1032,
    4308,
    1037,
    822,
    107,
    93
  ],
  "time_diffs": [
    0.0477750301361084,
    0.05243492126464844,
    0.20483708381652832,
    0.0,
    0.27744007110595703,
    0.0,
    0.0,
    9.5367431640625e-07,
    8.893013000488281e-05,
    0.00012111663818359375,
    0.00017881393432617188,
    0.0,
    0.0,
    2.4080276489257812e-05,
    9.894371032714844e-05,
    0.28133511543273926,
    0.0,
    7.987022399902344e-05,
    0.0,
    0.00020503997802734375,
    0.0,
    0.0,
    9.5367431640625e-07,
    0.04957318305969238,
    0.0,
    9.679794311523438e-05,
    0.00010704994201660156,
    0.201707124710083,
    0.0,
    8.20159912109375e-05,
    0.0,
    0.0,
    0.0003039836883544922,
    0.0,
    0.0,
    0.0,
    1.1920928955078125e-05,
    0.25594592094421387,
    0.0,
    0.00014209747314453125,
    0.00024199485778808594,
    0.0,
    0.0,
    0.0,
    0.0,
    0.3894920349121094,
    0.0,
    0.0,
    8.702278137207031e-05,
    0.00019788742065429688,
    1.3113021850585938e-05,
    0.00013303756713867188,
    0.0,
    0.5355668067932129,
    0.0,
    8.106231689453125e-05,
    9.5367431640625e-07,
    0.0,
    0.00011515617370605469,
    0.18439483642578125,
    0.0,
    0.0,
    0.3178420066833496,
    0.0,
    9.5367431640625e-07,
    0.0,
    0.0,
    9.512901306152344e-05,
    0.0,
    0.0,
    1.6927719116210938e-05,
    0.000102996826171875,
    0.5103590488433838,
    0.0,
    0.0003330707550048828,
    2.09808349609375e-05,
    0.00012493133544921875,
    0.0,
    0.0,
    0.0,
    0.0,
    0.0,
    0.041715145111083984,
    0.5169038772583008,
    0.0,
    0.0,
    0.0,
    0.00014209747314453125,
    9.5367431640625e-07,
    0.0,
    3.886222839355469e-05,
    5.698204040527344e-05,
    3.910064697265625e-05,
    0.04953193664550781,
    0.0,
    0.3247699737548828,
    0.0,
    7.915496826171875e-05,
    4.982948303222656e-05,
    1.1205673217773438e-05,
    6.985664367675781e-05,
    3.0040740966796875e-05,
    3.1948089599609375e-05,
    5.817413330078125e-05,
    0.13953280448913574,
    0.0,
    0.47579002380371094,
    0.0,
    0.049816131591796875,
    0.0,
    0.44741392135620117,
    0.0,
    0.0,
    9.012222290039062e-05,
    0.0,
    0.0,
    0.0,
    0.00038886070251464844,
    3.409385681152344e-05,
    3.600120544433594e-05,
    8.821487426757812e-06,
    0.049276113510131836,
    0.0,
    0.40950489044189453,
    0.0,
    0.0,
    0.0,
    9.322166442871094e-05,
    0.0,
    0.0,
    0.0031669139862060547,
    0.0,
    0.36966991424560547,
    3.0040740966796875e-05,
    2.4080276489257812e-05,
    6.604194641113281e-05,
    0.04969978332519531,
    0.0,
    0.0,
    6.222724914550781e-05,
    2.47955322265625e-05,
    4.00543212890625e-05,
    9.512901306152344e-05,
    9.5367431640625e-07,
    0.4154038429260254,
    0.0,
    0.0,
    0.0,
    0.0,
    0.00010204315185546875,
    0.0,
    0.00015807151794433594,
    9.393692016601562e-05,
    0.0,
    0.4815990924835205,
    0.0,
    0.0005679130554199219,
    5.91278076171875e-05,
    4.100799560546875e-05,
    0.12407898902893066,
    0.35115790367126465,
    9.5367431640625e-07,
    8.606910705566406e-05,
    9.5367431640625e-07,
    4.696846008300781e-05,
    0.4443681240081787,
    0.0,
    8.702278137207031e-05,
    0.0,
    0.04971885681152344,
    0.0,
    6.699562072753906e-05,
    0.36183905601501465,
    0.0,
    0.2099471092224121,
    0.2923119068145752,
    0.0,
    0.0,
    9.012222290039062e-05,
    0.0,
    0.001984834671020508,
    0.0,
    0.0,
    4.100799560546875e-05,
    0.0001499652862548828,
    0.5513651371002197,
    0.0,
    0.0007648468017578125,
    0.00011420249938964844,
    0.0,
    0.0,
    0.0487978458404541,
    0.0,
    0.4871029853820801,
    0.0,
    0.00020599365234375,
    8.20159912109375e-05,
    0.0,
    0.4765961170196533,
    0.0,
    9.5367431640625e-07,
    8.797645568847656e-05,
    0.0,
    3.910064697265625e-05,
    0.0,
    0.33728981018066406,
    0.45888805389404297,
    0.0,
    0.0,
    0.0,
    0.00013709068298339844,
    0.0,
    0.0,
    0.04963397979736328,
    0.0,
    0.0,
    7.295608520507812e-05,
    0.3836359977722168,
    0.0,
    8.296966552734375e-05,
    0.0,
    9.5367431640625e-07,
    2.3126602172851562e-05,
    0.3623359203338623,
    0.0,
    7.915496826171875e-05,
    0.0,
    0.0015897750854492188,
    0.000408172607421875,
    0.04397296905517578
  ]
}