{
  "local_port": 44120,
  "remote_port": 443,
  "prompt": "I completed B.Tech in mechanical engineering and want to pursue a career in aeronautical design field. what are the design courses required for that?",
  "response": "Okay, transitioning from Mechanical Engineering to Aeronautical Design is a great move! Your mechanical engineering background gives you a solid foundation. Here's a breakdown of design courses and areas you should focus on to make that transition, along with explanations to guide your choices:\n\n**I. Core Aeronautical Design Concepts & Courses**\n\n*   **Aerodynamics:**\n    *   **Focus:** Understanding how air flows around aircraft shapes, creating lift, drag, and moments. Essential for designing efficient and stable aircraft.\n    *   **Course Content:**  Basic fluid mechanics, boundary layer theory, airfoil and wing theory, CFD (Computational Fluid Dynamics) for aerodynamic analysis, high-speed aerodynamics (supersonic/hypersonic if interested).\n    *   **Where to Learn:** University courses (graduate level is ideal), specialized online courses (Coursera, edX, Udemy), textbooks (e.g., Anderson's \"Fundamentals of Aerodynamics\").\n    *   **Software:** ANSYS Fluent, OpenFOAM, XFOIL.\n\n*   **Aircraft Structures:**\n    *   **Focus:** Designing the physical structure of the aircraft to withstand aerodynamic loads, gravity, and other stresses while minimizing weight.\n    *   **Course Content:**  Stress analysis, finite element analysis (FEA), material science (especially aerospace alloys and composites), fatigue and fracture mechanics, structural design principles, aircraft loads.\n    *   **Where to Learn:** University courses (graduate level), professional engineering courses, textbooks (e.g., \"Mechanics of Aircraft Structures\" by Sun).\n    *   **Software:** ANSYS Mechanical, Abaqus, Nastran.\n\n*   **Flight Mechanics/Flight Dynamics & Control:**\n    *   **Focus:**  Understanding the aircraft's motion and stability in flight, and designing control systems to maneuver it safely.\n    *   **Course Content:**  Equations of motion, stability derivatives, control surface design, autopilot design, simulation techniques.\n    *   **Where to Learn:** University courses (graduate level), textbooks (e.g., Nelson's \"Flight Stability and Automatic Control\").\n    *   **Software:** MATLAB/Simulink.\n\n*   **Propulsion:**\n    *   **Focus:**  Understanding how aircraft engines work (turbofans, turboprops, rockets) and integrating them into the aircraft design.\n    *   **Course Content:**  Thermodynamics, gas turbine theory, rocket propulsion, engine performance analysis, intake and exhaust design.\n    *   **Where to Learn:** University courses (graduate level), textbooks (e.g., Hill and Peterson's \"Mechanics and Thermodynamics of Propulsion\").\n\n**II. Essential Design Skills & Software**\n\n*   **CAD (Computer-Aided Design):**\n    *   **Focus:** Creating 3D models of aircraft components and assemblies.\n    *   **Software:** CATIA (very common in aerospace), SolidWorks, NX (formerly Unigraphics), AutoCAD (for 2D drawings).\n    *   **How to Learn:** Online courses, dedicated CAD training centers, practice projects.  Focus on surface modeling and complex shape design.\n\n*   **CFD (Computational Fluid Dynamics):**\n    *   **Focus:** Simulating airflow around aircraft to analyze aerodynamic performance.\n    *   **Software:** ANSYS Fluent, OpenFOAM (open source).\n    *   **How to Learn:** Online courses, university courses, tutorials.\n\n*   **FEA (Finite Element Analysis):**\n    *   **Focus:** Simulating stresses and strains in aircraft structures.\n    *   **Software:** ANSYS Mechanical, Abaqus.\n    *   **How to Learn:** Online courses, university courses, tutorials.\n\n*   **MATLAB/Simulink:**\n    *   **Focus:**  Simulation and control system design.\n    *   **How to Learn:** Online courses, tutorials, practice projects.\n\n**III. Specialization Areas (Choose based on your interests)**\n\n*   **Aircraft Conceptual Design:**\n    *   **Focus:**  Developing preliminary designs for new aircraft concepts, considering performance requirements, regulations, and cost.\n    *   **Skills:** Aerodynamics, structures, propulsion knowledge, weight estimation, performance analysis.\n    *   **Courses:**  Conceptual aircraft design courses, systems engineering courses.\n\n*   **Avionics and Systems Design:**\n    *   **Focus:** Designing the electronic systems that control the aircraft (navigation, communication, flight control).\n    *   **Skills:**  Electrical engineering fundamentals, control systems, embedded systems, communication protocols.\n    *   **Courses:**  Avionics courses, control systems courses.\n\n*   **UAV/Drone Design:**\n    *   **Focus:** Designing unmanned aerial vehicles.\n    *   **Skills:**  A mix of aerodynamics, structures, control systems, and electronics.\n    *   **Courses:**  UAV design courses, robotics courses.\n\n*   **Spacecraft Design:**\n    *   **Focus:** Designing satellites and other spacecraft.\n    *   **Skills:**  Orbital mechanics, thermal control, radiation shielding, propulsion.\n    *   **Courses:**  Spacecraft design courses, orbital mechanics courses.\n\n**IV. How to Learn and Gain Experience**\n\n1.  **Formal Education:**\n    *   **Master's Degree:** A Master's in Aerospace Engineering (with a focus on design) is the most direct path.  Look for programs with strong industry connections.\n    *   **Specialized Certificate Programs:** Some universities offer graduate certificates in areas like aerospace structures, aerodynamics, or flight dynamics.\n2.  **Online Courses:**\n    *   **Coursera, edX, Udemy:** Offer a wealth of courses in aerospace engineering and related fields.  Look for courses taught by university professors or industry professionals.\n3.  **Books and Self-Study:**\n    *   **Textbooks:**  Use standard aerospace engineering textbooks to learn the fundamentals.\n    *   **Technical Papers:**  Read research papers in journals like the \"Journal of Aircraft\" and \"Journal of Spacecraft and Rockets\" to stay up-to-date on the latest developments.\n4.  **Projects:**\n    *   **Personal Projects:** Design and build a model aircraft, analyze the aerodynamics of a wing using CFD, or design a simple autopilot system.\n    *   **Open Source Projects:** Contribute to open-source aerospace projects.\n5.  **Internships:**\n    *   **Aerospace Companies:** Internships are invaluable for gaining practical experience.  Look for internships at companies like Boeing, Airbus, Lockheed Martin, SpaceX, etc.\n    *   **Research Labs:**  Intern at university research labs that are working on aerospace projects.\n6.  **Networking:**\n    *   **Industry Events:** Attend aerospace conferences and workshops to network with professionals in the field.\n    *   **Online Communities:** Join online communities like LinkedIn groups and forums to connect with other aerospace engineers.\n\n**Specific Course Recommendations:**\n\n*   **Coursera:**\n    *   \"Aircraft Performance\" (Delft University of Technology)\n    *   \"Introduction to Flight Mechanics\" (Delft University of Technology)\n    *   \"Gas Turbine Engines\" (MIT)\n*   **edX:**\n    *   \"Introduction to Aerospace Engineering: Astronautics and Spacecraft\" (MIT)\n    *   \"Introduction to Aerospace Structures and Materials\" (MIT)\n*   **Udemy:**\n    *   Search for courses on \"CFD with ANSYS Fluent,\" \"FEA with ANSYS Mechanical,\" \"CATIA for Aerospace Design.\"\n\n**Important Considerations:**\n\n*   **Focus on Your Strengths:** Identify the areas of mechanical engineering where you excel (e.g., FEA, CAD, thermodynamics) and try to leverage those skills in your aerospace career.\n*   **Be Prepared to Learn Continuously:** Aerospace engineering is a constantly evolving field. Be prepared to learn new technologies and techniques throughout your career.\n*   **Portfolio:**  Build a portfolio of your design projects to showcase your skills to potential employers.\n*   **Get Certified:**  Consider getting certified in specific software packages (e.g., CATIA, ANSYS).\n*   **Tailor Your Resume:**  Highlight your relevant skills and experience on your resume, and tailor it to each job you apply for.\n\n**Key Takeaways:**\n\n*   **Master the Fundamentals:**  Start with the core concepts of aerodynamics, structures, flight mechanics, and propulsion.\n*   **Learn the Software:**  Become proficient in CAD, CFD, FEA, and MATLAB/Simulink.\n*   **Gain Practical Experience:**  Work on projects and internships to apply your knowledge and build your skills.\n*   **Specialize:**  Choose a specialization area based on your interests and career goals.\n*   **Network:**  Connect with professionals in the aerospace industry.\n\nBy following these steps, you can successfully transition from mechanical engineering to a rewarding career in aeronautical design. Good luck!\n",
  "temperature": 1.0,
  "data_lengths": [
    2187,
    1294,
    233,
    243,
    365,
    359,
    264,
    420,
    408,
    384,
    538,
    473,
    482,
    435,
    443,
    379,
    439,
    255,
    333,
    380,
    482,
    306,
    440,
    340,
    503,
    498,
    480,
    354,
    283,
    508,
    376,
    443,
    427,
    483,
    378,
    494,
    146,
    145,
    113
  ],
  "time_diffs": [
    0.04495501518249512,
    0.3158109188079834,
    0.0014300346374511719,
    0.04246091842651367,
    0.0659480094909668,
    0.07628297805786133,
    0.18500614166259766,
    0.17006993293762207,
    0.3249959945678711,
    0.2902350425720215,
    0.42004895210266113,
    0.3455030918121338,
    0.40966200828552246,
    0.34458184242248535,
    0.34081602096557617,
    0.3035900592803955,
    0.44508910179138184,
    0.29210877418518066,
    0.31585121154785156,
    0.2783808708190918,
    0.40340614318847656,
    0.34238600730895996,
    0.306210994720459,
    0.3185238838195801,
    0.3234589099884033,
    0.3361191749572754,
    0.3599088191986084,
    0.33878302574157715,
    0.30396604537963867,
    0.37035703659057617,
    0.38356590270996094,
    0.4709320068359375,
    0.27362608909606934,
    0.311953067779541,
    0.29784584045410156,
    0.3213081359863281,
    0.006185054779052734,
    0.0,
    0.0
  ]
}